<?xml version="1.0" encoding="UTF-8"?>

<!-- generated on 07/02/20 09:58:16 by Eclipse SUMO GUI Version 1.3.1
<configuration xmlns:xsi="http://www.w3.org/2001/XMLSchema-instance" xsi:noNamespaceSchemaLocation="http://sumo.dlr.de/xsd/sumoConfiguration.xsd">

    <input>
        <net-file value="C:\Users\guoqq17\Documents\GitHub\deeprl_signal_control\real_net\data\in/most.net.xml"/>
    </input>

    <output>
        <tripinfo-output value="C:\Users\guoqq17\Documents\GitHub\deeprl_signal_control\real_net\data\tripinfo1.xml"/>
    </output>

    <time>
        <begin value="10"/>
        <end value="3600"/>
    </time>

    <report>
        <verbose value="true"/>
        <log value="C:\Users\guoqq17\Documents\GitHub\deeprl_signal_control\real_net\data\sim.log"/>
        <duration-log.statistics value="true"/>
    </report>

    <gui_only>
        <quit-on-end value="false"/>
    </gui_only>

</configuration>
